12 
0 1
O     -0.558162     -0.067136      0.283551
H      0.392113     -0.165708      0.113832
C     -1.193155     -1.291144     -0.004555
H     -2.263130     -1.167074      0.205458
H     -1.084375     -1.581562     -1.064023
H     -0.815614     -2.117870      0.622283
O      2.256730     -0.210832      0.015092
H      2.580595      0.467719     -0.584079
C      2.755790      0.052693      1.321134
H      2.360231     -0.733979      1.972592
H      3.854874      0.013460      1.347179
H      2.412237      1.026361      1.701469
