8
0 1
Se	-0.0203822097	0.3618161929	0.0074205294
N	-0.0118646315	3.5147867691	0.0037061722
C	0.0022415680	-1.3883018004	0.0003217757
F	-0.0138246024	-2.1768976277	1.0563130744
F	0.0381919282	-2.1673940903	-1.0622382051
H	0.4971323826	3.8809307955	0.8040043742
H	-0.9281334478	3.9551000533	0.0173061798
H	0.4630890123	3.8586897078	-0.8268339005
